
 OpenBabel04172614203D

 25 24  0  0  0  0  0  0  0  0999 V2000
    2.7736    1.6138   -0.2324 C   0  0  0  0  0  0  0  0  0  0  0  0
    2.4810    0.1462   -0.0350 C   0  0  0  0  0  0  0  0  0  0  0  0
    1.6477   -0.2380    0.7869 O   0  0  0  0  0  0  0  0  0  0  0  0
    3.2125   -0.8398   -0.9417 C   0  0  0  0  0  0  0  0  0  0  0  0
    4.6557   -0.6890   -0.7648 N   0  0  0  0  0  0  0  0  0  0  0  0
    5.4158   -1.6229   -1.6114 C   0  0  0  0  0  0  0  0  0  0  0  0
    6.9320   -1.4713   -1.3545 C   0  0  0  0  0  0  0  0  0  0  0  0
    7.3616   -0.6768   -0.5150 O   0  0  0  0  0  0  0  0  0  0  0  0
    7.7836   -2.2935   -2.0894 N   0  0  0  0  0  0  0  0  0  0  0  0
    7.3615   -3.2820   -3.0696 C   0  0  0  0  0  0  0  0  0  0  0  0
    9.2161   -2.2159   -1.8464 C   0  0  0  0  0  0  0  0  0  0  0  0
    2.2080    2.2009    0.4966 H   0  0  0  0  0  0  0  0  0  0  0  0
    2.4741    1.9136   -1.2398 H   0  0  0  0  0  0  0  0  0  0  0  0
    3.8373    1.8140   -0.0809 H   0  0  0  0  0  0  0  0  0  0  0  0
    2.9171   -0.6249   -1.9743 H   0  0  0  0  0  0  0  0  0  0  0  0
    2.8864   -1.8543   -0.6852 H   0  0  0  0  0  0  0  0  0  0  0  0
    4.9250   -0.8487    0.2100 H   0  0  0  0  0  0  0  0  0  0  0  0
    5.2172   -1.4008   -2.6647 H   0  0  0  0  0  0  0  0  0  0  0  0
    5.1316   -2.6541   -1.3749 H   0  0  0  0  0  0  0  0  0  0  0  0
    6.2833   -3.2947   -3.2271 H   0  0  0  0  0  0  0  0  0  0  0  0
    7.6763   -4.2715   -2.7241 H   0  0  0  0  0  0  0  0  0  0  0  0
    7.8505   -3.0596   -4.0228 H   0  0  0  0  0  0  0  0  0  0  0  0
    9.4776   -1.4473   -1.1149 H   0  0  0  0  0  0  0  0  0  0  0  0
    9.7221   -1.9895   -2.7895 H   0  0  0  0  0  0  0  0  0  0  0  0
    9.5601   -3.1857   -1.4732 H   0  0  0  0  0  0  0  0  0  0  0  0
  1  2  1  0  0  0  0
  1 12  1  0  0  0  0
  1 13  1  0  0  0  0
  1 14  1  0  0  0  0
  2  3  2  0  0  0  0
  2  4  1  0  0  0  0
  4  5  1  0  0  0  0
  4 15  1  0  0  0  0
  4 16  1  0  0  0  0
  5  6  1  0  0  0  0
  5 17  1  0  0  0  0
  6  7  1  0  0  0  0
  6 18  1  0  0  0  0
  6 19  1  0  0  0  0
  7  8  2  0  0  0  0
  7  9  1  0  0  0  0
  9 10  1  0  0  0  0
  9 11  1  0  0  0  0
 10 20  1  0  0  0  0
 10 21  1  0  0  0  0
 10 22  1  0  0  0  0
 11 23  1  0  0  0  0
 11 24  1  0  0  0  0
 11 25  1  0  0  0  0
M  END
$$$$
