
 OpenBabel04152614173D

 33 33  0  0  0  0  0  0  0  0999 V2000
    1.3239   -0.4742    2.1743 C   0  0  0  0  0  0  0  0  0  0  0  0
    2.7449   -0.7452    2.0359 N   0  0  0  0  0  0  0  0  0  0  0  0
    3.6097   -0.4766    3.1704 C   0  0  0  0  0  0  0  0  0  0  0  0
    3.2221   -1.0225    0.7568 C   0  0  0  0  0  0  0  0  0  0  0  0
    2.4608   -1.0970   -0.2123 O   0  0  0  0  0  0  0  0  0  0  0  0
    4.7369   -1.2351    0.5654 C   0  0  0  0  0  0  0  0  0  0  0  0
    5.1608   -2.6190    0.9056 N   0  0  0  0  0  0  0  0  0  0  0  0
    4.5307   -3.5826   -0.0145 C   0  0  0  0  0  0  0  0  0  0  0  0
    6.6386   -2.7038    0.8066 C   0  0  0  0  0  0  0  0  0  0  0  0
    7.2000   -4.0763    1.0998 C   0  0  0  0  0  0  0  0  0  0  0  0
    6.9847   -4.6927    2.3397 C   0  0  0  0  0  0  0  0  0  0  0  0
    7.4362   -5.9956    2.5702 C   0  0  0  0  0  0  0  0  0  0  0  0
    8.1125   -6.6926    1.5694 C   0  0  0  0  0  0  0  0  0  0  0  0
    8.3621   -6.0775    0.3449 C   0  0  0  0  0  0  0  0  0  0  0  0
    7.9125   -4.7776    0.1221 C   0  0  0  0  0  0  0  0  0  0  0  0
    8.1629   -4.2094   -1.0658 F   0  0  0  0  0  0  0  0  0  0  0  0
    1.0476   -0.3251    3.2214 H   0  0  0  0  0  0  0  0  0  0  0  0
    0.7603   -1.3250    1.7785 H   0  0  0  0  0  0  0  0  0  0  0  0
    1.0674    0.4184    1.5958 H   0  0  0  0  0  0  0  0  0  0  0  0
    3.0288   -0.3837    4.0918 H   0  0  0  0  0  0  0  0  0  0  0  0
    4.1550    0.4546    2.9911 H   0  0  0  0  0  0  0  0  0  0  0  0
    4.3224   -1.2968    3.2902 H   0  0  0  0  0  0  0  0  0  0  0  0
    5.2741   -0.5083    1.1771 H   0  0  0  0  0  0  0  0  0  0  0  0
    4.9784   -0.9944   -0.4790 H   0  0  0  0  0  0  0  0  0  0  0  0
    3.4453   -3.4580   -0.0650 H   0  0  0  0  0  0  0  0  0  0  0  0
    4.6802   -4.6067    0.3436 H   0  0  0  0  0  0  0  0  0  0  0  0
    4.9333   -3.5050   -1.0309 H   0  0  0  0  0  0  0  0  0  0  0  0
    7.0889   -2.0096    1.5280 H   0  0  0  0  0  0  0  0  0  0  0  0
    6.9688   -2.3679   -0.1884 H   0  0  0  0  0  0  0  0  0  0  0  0
    6.4354   -4.1678    3.1192 H   0  0  0  0  0  0  0  0  0  0  0  0
    7.2434   -6.4725    3.5289 H   0  0  0  0  0  0  0  0  0  0  0  0
    8.4410   -7.7142    1.7428 H   0  0  0  0  0  0  0  0  0  0  0  0
    8.8916   -6.6042   -0.4433 H   0  0  0  0  0  0  0  0  0  0  0  0
  1  2  1  0  0  0  0
  1 17  1  0  0  0  0
  1 18  1  0  0  0  0
  1 19  1  0  0  0  0
  2  3  1  0  0  0  0
  2  4  1  0  0  0  0
  3 20  1  0  0  0  0
  3 21  1  0  0  0  0
  3 22  1  0  0  0  0
  4  5  2  0  0  0  0
  4  6  1  0  0  0  0
  6  7  1  0  0  0  0
  6 23  1  0  0  0  0
  6 24  1  0  0  0  0
  7  8  1  0  0  0  0
  7  9  1  0  0  0  0
  8 25  1  0  0  0  0
  8 26  1  0  0  0  0
  8 27  1  0  0  0  0
  9 10  1  0  0  0  0
  9 28  1  0  0  0  0
  9 29  1  0  0  0  0
 10 11  1  0  0  0  0
 10 15  2  0  0  0  0
 11 12  2  0  0  0  0
 11 30  1  0  0  0  0
 12 13  1  0  0  0  0
 12 31  1  0  0  0  0
 13 14  2  0  0  0  0
 13 32  1  0  0  0  0
 14 15  1  0  0  0  0
 14 33  1  0  0  0  0
 15 16  1  0  0  0  0
M  END
$$$$
